LTspice 24.0.11 for Windows
Circuit: * D:\sakethprograms\ssp work\Draft2.asc
Start Time: Thu Feb  6 01:23:49 2025
solver = Normal
Maximum thread count: 8
tnom = 27
temp = 27
method = modified trap
Direct Newton iteration for .op point succeeded.
Total elapsed time: 7.206 seconds.

